/*--------------------------------*- C++ -*----------------------------------*\
  =========                 |
  \\      /  F ield         | OpenFOAM: The Open Source CFD Toolbox
   \\    /   O peration     | Website:  https://openfoam.org
    \\  /    A nd           | Version:  8
     \\/     M anipulation  |
\*---------------------------------------------------------------------------*/
FoamFile
{
    version     2.0;
    format      ascii;
    class       dictionary;
    location    "system";
    object      fvSolution;
}
// * * * * * * * * * * * * * * * * * * * * * * * * * * * * * * * * * * * * * //

solvers
{
p
{
solver PCG;
preconditioner
{
preconditioner GAMG;
tolerance 1e-05;
relTol 0;
smoother GaussSeidel;
cacheAgglomeration true;
nCellsInCoarsestLevel 50;
agglomerator faceAreaPair;
mergeLevels 1;
}
minIter 0;
maxIter 100;
tolerance 1e-5;
relTol 0.0;
};

U
{
solver PBiCG;
preconditioner DILU;
tolerance 1e-08;
relTol 0.1;
}

pFinal
{
$p;
relTol 0;
}

U
{
solver smoothSolver;
smoother symGaussSeidel;
tolerance 1e-05;
relTol 0;
}
}

PISO
{
nCorrectors 3;
nNonOrthogonalCorrectors 3;
pRefCell 0;
pRefValue 0;
}


// ************************************************************************* //
